LAMMPS (11 Jun 2012)
# Initialization
atom_style      full
units           real
variable        T equal 300
variable        dt equal 1.0
variable        seed equal 123456
variable        radius equal 0.5
variable        sizet equal 4
variable        sizeb equal -4
variable        p equal 20000     # correlation length
variable        s equal 5         # sample interval
variable        d equal $p*$s     # dump interval
variable        d equal 20000*$s     variable        d equal 20000*5
# convert from LAMMPS real units to SI
variable        kB equal 1.3806504e-23    # [J/K] Boltzmann
variable        kCal2J equal 4186.0/6.02214e23
variable        A2m equal 1.0e-10
variable        fs2s equal 1.0e-15
variable        convert equal 6.9510174124148567155e-21*6.9510174124148567155e-21/1.0000000000000000777e-15/1.0000000000000000364e-10
variable        b_eq equal 10.0/3.0

# setup problem
dimension       3
boundary        p p p
neighbor        2    bin
pair_style      lj/cut 10.0
bond_style      morse
read_data       lammps.data
  orthogonal box = (0 0 0) to (80 80 80)
  3584 atoms
  16848 bonds
pair_coeff      1 1 0 4.75
bond_coeff      1 10 1.8 3.3333333333333334814
bond_coeff      2 5 0.805 7.4536
velocity        all create 300 123456 mom yes rot yes dist gaussian
timestep        1
thermo          100
dump            T1 all cfg 600000 *.cfg id type xs ys zs
dump            T2 all xyz 10000 traj.xyz
#dump_modify    1 element Cu
# −−−−−−−−−−−−− Equilibration and thermalisation −−−−−−−−−−−−−−−−
fix             NVT all nvt temp $T $T 10
fix             NVT all nvt temp 300 $T 10
fix             NVT all nvt temp 300 300 10
run             300000
Step Temp E_pair E_mol TotEng Press
0          300            0 6.3694801e-05    3204.0728    287.12305
Averages over the last 1501 of 3001 rows, steps 150000 to 300000:
Temp E_pair E_mol TotEng Press
299.985 0 3244.19 6448.1 1033.6
Loop time of 73.0042 on 8 procs for 300000 steps with 3584 atoms

Pair  time (%) = 0.51193 (0.701234)
Bond  time (%) = 40.6113 (55.6288)
Neigh time (%) = 3.4922 (4.78357)
Comm  time (%) = 19.7946 (27.1143)
Outpt time (%) = 0.26441 (0.362185)
Other time (%) = 8.32972 (11.4099)

unfix           NVT
# −−−−−−−−−−−−−−− Equilibration in nve −−−−−−−−−−−−−−−−−
fix             NVE all nve
run             300000
Step Temp E_pair E_mol TotEng Press
300000    306.03014            0    3289.6112    6558.0873    1031.3424
Averages over the last 1501 of 3001 rows, steps 450000 to 600000:
Temp E_pair E_mol TotEng Press
305.048 0 3300.09 6558.08 1059.71
Loop time of 70.3212 on 8 procs for 300000 steps with 3584 atoms

Pair  time (%) = 0.509214 (0.724126)
Bond  time (%) = 40.6262 (57.7723)
Neigh time (%) = 3.52186 (5.00824)
Comm  time (%) = 19.8201 (28.1851)
Outpt time (%) = 0.277959 (0.395271)
Other time (%) = 5.56589 (7.91495)

# −−−−−−−−−−−−−− Flux calculation in nve −−−−−−−−−−−−−−−
reset_timestep  0
compute         PE all pe/atom
compute         KE all ke/atom

variable        CX atom (vx*(c_KE+c_PE))
compute         Jcx all reduce sum v_CX

variable        CZ atom (vz*(c_KE+c_PE))
compute         Jcz all reduce sum v_CZ

variable        CY atom (vy*(c_KE+c_PE))
compute         Jcy all reduce sum v_CY

compute         SA all stress/atom virial

variable        VX atom -(c_SA[1]*vx+c_SA[4]*vy+c_SA[5]*vz)*1.4593e-5
compute         Jvx all reduce sum v_VX

variable        VZ atom -(c_SA[3]*vz+c_SA[6]*vy+c_SA[5]*vx)*1.4593e-5
compute         Jvz all reduce sum v_VZ

variable        VY atom -(c_SA[2]*vy+c_SA[6]*vz+c_SA[4]*vx)*1.4593e-5
compute         Jvy all reduce sum v_VY

variable        Jx equal (c_Jcx+c_Jvx)/vol
variable        Jz equal (c_Jcz+c_Jvz)/vol
variable        Jy equal (c_Jcy+c_Jvy)/vol

fix             JJTx all ave/correlate $s $p $d                 v_Jx type auto file J0Jt_tx.dat ave running
fix             JJTx all ave/correlate 5 $p $d                 v_Jx type auto file J0Jt_tx.dat ave running
fix             JJTx all ave/correlate 5 20000 $d                 v_Jx type auto file J0Jt_tx.dat ave running
fix             JJTx all ave/correlate 5 20000 100000                 v_Jx type auto file J0Jt_tx.dat ave running

fix             JJTz all ave/correlate $s $p $d                 v_Jz type auto file J0Jt_tz.dat ave running
fix             JJTz all ave/correlate 5 $p $d                 v_Jz type auto file J0Jt_tz.dat ave running
fix             JJTz all ave/correlate 5 20000 $d                 v_Jz type auto file J0Jt_tz.dat ave running
fix             JJTz all ave/correlate 5 20000 100000                 v_Jz type auto file J0Jt_tz.dat ave running

fix             JJTy all ave/correlate $s $p $d                 v_Jy type auto file J0Jt_ty.dat ave running
fix             JJTy all ave/correlate 5 $p $d                 v_Jy type auto file J0Jt_ty.dat ave running
fix             JJTy all ave/correlate 5 20000 $d                 v_Jy type auto file J0Jt_ty.dat ave running
fix             JJTy all ave/correlate 5 20000 100000                 v_Jy type auto file J0Jt_ty.dat ave running

run             1000000
Step Temp E_pair E_mol TotEng Press
0    304.15449            0    3309.6504    6558.0941    1075.6843
Averages over the last 51 of 101 rows, steps 5000 to 10000:
Temp E_pair E_mol TotEng Press
305.283 0 3297.59 6558.08 1053.37
Loop time of 479.041 on 8 procs for 1000000 steps with 3584 atoms

Pair  time (%) = 5.63342 (1.17598)
Bond  time (%) = 150.512 (31.4194)
Neigh time (%) = 11.8019 (2.46366)
Comm  time (%) = 70.0092 (14.6144)
Outpt time (%) = 0.00287715 (0.000600605)
Other time (%) = 241.082 (50.326)
