LAMMPS (11 Jun 2012)
# Initialization
atom_style      full
units           real
variable        T equal 300
variable        dt equal 1.0
variable        seed equal 123462
variable        radius equal 0.5
variable        sizet equal 4
variable        sizeb equal -4
variable        p equal 20000    # correlation length
variable        s equal 5        # sample interval
variable        d equal $p*$s    # dump interval
variable        d equal 20000*$s    variable        d equal 20000*5
# convert from LAMMPS real units to SI
variable        kB equal 1.3806504e-23    # [J/K] Boltzmann
variable        kCal2J equal 4186.0/6.02214e23
variable        A2m equal 1.0e-10
variable        fs2s equal 1.0e-15
variable        convert equal 6.9510174124148567155e-21*6.9510174124148567155e-21/1.0000000000000000777e-15/1.0000000000000000364e-10
variable        b_eq equal 10.0/3.0

# setup problem
dimension       3
boundary        p p p
neighbor        2    bin
pair_style      lj/cut 10.0
bond_style      morse
read_data       lammps.data
  orthogonal box = (0 0 0) to (80 80 80)
  7168 atoms
  33696 bonds
pair_coeff      1 1 0.000 3.500
pair_coeff      2 2 0.000 3.500
pair_coeff      1 2 0.105 3.500
bond_coeff      1 10 1.8 3.3333333333333334814
bond_coeff      2 5 0.805 7.4536
bond_coeff      3 10 1.8 3.3333333333333334814
bond_coeff      4 5 0.805 7.4536
velocity        all create 300 123462 mom yes rot yes dist gaussian
timestep        1
thermo          100
dump            T1 all cfg 600000 *.cfg id type xs ys zs
dump            T2 all xyz 10000 traj.xyz
#dump_modify    1 element Cu
# −−−−−−−−−−−−− Equilibration and thermalisation −−−−−−−−−−−−−−−−
fix             NVT all nvt temp $T $T 10
fix             NVT all nvt temp 300 $T 10
fix             NVT all nvt temp 300 300 10
run             300000
Step Temp E_pair E_mol TotEng Press
0          300   -906.89526 0.00012694983    5502.1446    343.62551
Averages over the last 1501 of 3001 rows, steps 150000 to 300000:
Temp E_pair E_mol TotEng Press
300.026 -1162.21 6422.8 11670.2 1907.67
Loop time of 283.267 on 8 procs for 300000 steps with 7168 atoms

Pair  time (%) = 137.414 (48.5105)
Bond  time (%) = 80.9806 (28.5881)
Neigh time (%) = 19.6086 (6.92228)
Comm  time (%) = 30.5382 (10.7807)
Outpt time (%) = 0.452196 (0.159636)
Other time (%) = 14.2734 (5.03885)

unfix           NVT
# −−−−−−−−−−−−−−− Equilibration in nve −−−−−−−−−−−−−−−−−
fix             NVE all nve
run             300000
Step Temp E_pair E_mol TotEng Press
300000     300.1728   -1170.7474     6470.436     11712.42    1891.0316
Averages over the last 1501 of 3001 rows, steps 450000 to 600000:
Temp E_pair E_mol TotEng Press
300.996 -1161.65 6443.59 11712.3 1920.56
Loop time of 283.108 on 8 procs for 300000 steps with 7168 atoms

Pair  time (%) = 137.378 (48.5248)
Bond  time (%) = 81.1522 (28.6647)
Neigh time (%) = 19.6129 (6.92772)
Comm  time (%) = 34.5012 (12.1866)
Outpt time (%) = 0.490545 (0.173271)
Other time (%) = 9.97352 (3.52287)

# −−−−−−−−−−−−−− Flux calculation in nve −−−−−−−−−−−−−−−
reset_timestep  0
compute         PE all pe/atom
compute         KE all ke/atom

variable        CX atom (vx*(c_KE+c_PE))
compute         Jcx all reduce sum v_CX

variable        CZ atom (vz*(c_KE+c_PE))
compute         Jcz all reduce sum v_CZ

variable        CY atom (vy*(c_KE+c_PE))
compute         Jcy all reduce sum v_CY

compute         SA all stress/atom virial

variable        VX atom -(c_SA[1]*vx+c_SA[4]*vy+c_SA[5]*vz)*1.4593e-5
compute         Jvx all reduce sum v_VX

variable        VZ atom -(c_SA[3]*vz+c_SA[6]*vy+c_SA[5]*vx)*1.4593e-5
compute         Jvz all reduce sum v_VZ

variable        VY atom -(c_SA[2]*vy+c_SA[6]*vz+c_SA[4]*vx)*1.4593e-5
compute         Jvy all reduce sum v_VY

variable        Jx equal (c_Jcx+c_Jvx)/vol
variable        Jz equal (c_Jcz+c_Jvz)/vol
variable        Jy equal (c_Jcy+c_Jvy)/vol

fix             JJTx all ave/correlate $s $p $d                 v_Jx type auto file J0Jt_tx.dat ave running
fix             JJTx all ave/correlate 5 $p $d                 v_Jx type auto file J0Jt_tx.dat ave running
fix             JJTx all ave/correlate 5 20000 $d                 v_Jx type auto file J0Jt_tx.dat ave running
fix             JJTx all ave/correlate 5 20000 100000                 v_Jx type auto file J0Jt_tx.dat ave running

fix             JJTz all ave/correlate $s $p $d                 v_Jz type auto file J0Jt_tz.dat ave running
fix             JJTz all ave/correlate 5 $p $d                 v_Jz type auto file J0Jt_tz.dat ave running
fix             JJTz all ave/correlate 5 20000 $d                 v_Jz type auto file J0Jt_tz.dat ave running
fix             JJTz all ave/correlate 5 20000 100000                 v_Jz type auto file J0Jt_tz.dat ave running

fix             JJTy all ave/correlate $s $p $d                 v_Jy type auto file J0Jt_ty.dat ave running
fix             JJTy all ave/correlate 5 $p $d                 v_Jy type auto file J0Jt_ty.dat ave running
fix             JJTy all ave/correlate 5 20000 $d                 v_Jy type auto file J0Jt_ty.dat ave running
fix             JJTy all ave/correlate 5 20000 100000                 v_Jy type auto file J0Jt_ty.dat ave running

run             1000000
Step Temp E_pair E_mol TotEng Press
0    299.99904   -1161.9037    6464.9022    11712.018    1958.6143
Averages over the last 51 of 101 rows, steps 5000 to 10000:
Temp E_pair E_mol TotEng Press
301.107 -1159.54 6439 11712.1 1924.68
Loop time of 1429.97 on 8 procs for 1000000 steps with 7168 atoms

Pair  time (%) = 564.034 (39.4438)
Bond  time (%) = 297.44 (20.8005)
Neigh time (%) = 65.6973 (4.59432)
Comm  time (%) = 122.307 (8.5531)
Outpt time (%) = 0.00396517 (0.000277291)
Other time (%) = 380.485 (26.608)
